/*---------------------------------------------------------------------------*\
| =========                 |                                                 |
| \\      /  F ield         | OpenFOAM: The Open Source CFD Toolbox           |
|  \\    /   O peration     | Version:  1.4                                   |
|   \\  /    A nd           | Web:      http://www.openfoam.org               |
|    \\/     M anipulation  |                                                 |
\*---------------------------------------------------------------------------*/

FoamFile
{
    version         2.0;
    format          binary;

    root            "";
    case            "";
    instance        "";
    local           "";

    class           dictionary;
    object          controlDict;
}

// * * * * * * * * * * * * * * * * * * * * * * * * * * * * * * * * * * * * * //

application     boussinesqFoam;

startFrom       latestTime;

startTime       0;

stopAt          endTime;

endTime         800;

deltaT          0.0025; // 0.0025 for 400 x 800 (Y x X) solution

writeControl    runTime;

writeInterval   0.5;

purgeWrite      0;

writeFormat     binary;

writePrecision  12;

writeCompression uncompressed;

timeFormat      general;

timePrecision   6;

runTimeModifiable yes;

adjustTimeStep no;
maxCo          0.5;

functions
{
    minMaxMagUBP
    {
        type        fieldMinMax;
        libs        ("libfieldFunctionObjects.so");
        write       yes;
        log         yes;
        location    yes;
        mode        magnitude;
        fields
        (
            u
            b
            P
        );
    }
}

libs
(
    "libExnerTheta.so"
    "libfiniteVolumeAtmosFOAMtools.so"
    "libcompressibleTurbulenceModels.so"
    "libatmosphericModels.so"
);



// ************************************************************************* //
