/*---------------------------------------------------------------------------*\
| =========                 |                                                 |
| \\      /  F ield         | OpenFOAM: The Open Source CFD Toolbox           |
|  \\    /   O peration     | Version:  1.4                                   |
|   \\  /    A nd           | Web:      http://www.openfoam.org               |
|    \\/     M anipulation  |                                                 |
\*---------------------------------------------------------------------------*/

FoamFile
{
    version         2.0;
    format          ascii;

    root            "";
    case            "";
    instance        "";
    local           "";

    class           dictionary;
    object          controlDict;
}

// * * * * * * * * * * * * * * * * * * * * * * * * * * * * * * * * * * * * * //

application     turbulentExnerFoam;

//startFrom       startTime;
startFrom       latestTime;

startTime       0;

stopAt          endTime;

endTime         150;

deltaT          0.0025;

writeControl    runTime;

writeInterval   0.1;

purgeWrite      0;

writeFormat     binary;

writePrecision  6;

writeCompression uncompressed;

timeFormat      general;

timePrecision   6;

runTimeModifiable no;

adjustTimeStep no;
maxCo          0.5;

functions
{
    #includeFunc  grad(theta)
    writeRho
    {
        type                    writeObjects;
        libs                    ("libutilityFunctionObjects.so");
        writeControl            runTime;
        writeInterval           0.1;
        objects
        ("rho");
    }
    
    minMaxMagU
    {
        type        fieldMinMax;
        libs        ("libfieldFunctionObjects.so");
        write       yes;
        log         yes;
        location    yes;
        mode        magnitude;
        fields
        (
            U
        );
    }
    
    minMaxNut
    {
        type        fieldMinMax;
        libs        ("libfieldFunctionObjects.so");
        write       yes;
        log         yes;
        location    yes;
        mode        magnitude;
        fields
        (
            nut
        );
    }
    
    minMaxAlphat
    {
        type        fieldMinMax;
        libs        ("libfieldFunctionObjects.so");
        write       yes;
        log         yes;
        location    yes;
        mode        magnitude;
        fields
        (
            alphat
        );
    }
}

libs            ("libExnerTheta.so" "libfiniteVolumeAtmos.so" "libfiniteVolumeAtmosFOAMtools.so");

// ************************************************************************* //
