/*---------------------------------------------------------------------------*\
| =========                 |                                                 |
| \\      /  F ield         | OpenFOAM: The Open Source CFD Toolbox           |
|  \\    /   O peration     | Version:  1.4                                   |
|   \\  /    A nd           | Web:      http://www.openfoam.org               |
|    \\/     M anipulation  |                                                 |
\*---------------------------------------------------------------------------*/

FoamFile
{
    version         2.0;
    format          ascii;

    root            "";
    case            "";
    instance        "";
    local           "";

    class           dictionary;
    object          fvSchemes;
}

// * * * * * * * * * * * * * * * * * * * * * * * * * * * * * * * * * * * * * //

ddtSchemes
{
    default Euler;
}
offCentre 0.5;
SIgravityWaves false;

gradSchemes
{
    default         Gauss linear;
    linearUpwind    Gauss linear;
    grad(U)         Gauss linear;
}

divSchemes
{
    default none;
    div(U,theta)   Gauss linearUpwind linearUpwind;
    div(U,u)   Gauss linearUpwind linearUpwind;
    div(phi,U)   Gauss linearUpwind linearUpwind;
    div(phi,theta)   Gauss linearUpwind linearUpwind;
    div(((rho*nuEff)*dev2(T(grad(U))))) Gauss linear;
    div(phi,K)      Gauss linear;
    div(phi,h)      Gauss upwind;
}

laplacianSchemes
{
    default         Gauss midPoint uncorrected;
}

interpolationSchemes
{
    default        midPoint;
}

snGradSchemes
{
    default         corrected;
    snGrad(Exner)   uncorrected;
}

fluxRequired
{
    default         no;
    Exner;
}


// ************************************************************************* //
