/*---------------------------------------------------------------------------*\
| =========                 |                                                 |
| \\      /  F ield         | OpenFOAM: The Open Source CFD Toolbox           |
|  \\    /   O peration     | Version:  1.4                                   |
|   \\  /    A nd           | Web:      http://www.openfoam.org               |
|    \\/     M anipulation  |                                                 |
\*---------------------------------------------------------------------------*/

FoamFile
{
    version         2.0;
    format          ascii;

    root            "";
    case            "";
    instance        "";
    local           "";

    class           dictionary;
    object          controlDict;
}

// * * * * * * * * * * * * * * * * * * * * * * * * * * * * * * * * * * * * * //

application     multiFluidFoam;

startFrom       startTime;

startTime       0;

stopAt          endTime;

endTime         0.01;

deltaT          0.005;

writeControl    runTime;

writeInterval   0.005;

purgeWrite      0;

writeFormat     ascii;

writePrecision  12;

writeCompression uncompressed;

timeFormat      general;

timePrecision   6;

runTimeModifiable no;

adjustTimeStep no;
maxCo          0.5;

functions
{
    /*fieldAverage1
    {
        type            fieldAverage;
        libs            ("libfieldFunctionObjects.so");
        writeControl    writeTime;

        fields
        (
            u
            {
                mean        on;
                prime2Mean  on;
                base        time;
            }

            u.buoyant
            {
                mean        on;
                prime2Mean  on;
                base        time;
            }
            
            u.stable
            {
                mean        on;
                prime2Mean  on;
                base        time;
            }
            
            Exner
            {
                mean        on;
                prime2Mean  on;
                base        time;
            }
        );
    }*/
    
    minMaxMagU
    {
        type        fieldMinMax;
        libs        ("libfieldFunctionObjects.so");
        write       yes;
        log         yes;
        location    yes;
        mode        magnitude;
        fields
        (
            U
        );
    }
    
    /*
    passiveScalar
    {
        type            scalarTransport;
        libs            ("libsolverFunctionObjects.so");


        // Optional entries

        // Name of scalar field to transport, default = 's'
        field           passiveScalar;

        // Name of flux field, default = 'phi'
        phi             flux.buoyant;

        // Name of density field for compressible cases, default = 'rho'
        rho             rho.buoyant;

        // Name of phase field to constrain scalar to, default = 'none'
        phase           none;

        // Set the scalar to zero on start/re-start
        resetOnStartUp  no;

        // Name of field to use when looking up schemes from fvSchemes
        // default = <field>
        schemesField    u.buoyant;

        // Diffusivity
        // Fixed value diffusivity
        D               0.0;

        // Name of field to use as diffusivity, default = 'none'
        nut             none;
    }
    */
}

libs
(
    "libExnerTheta.so"
    "libfiniteVolumeAtmosFOAMtools.so"
    "libcompressibleTurbulenceModels.so"
    "libatmosphericModels.so"
);



// ************************************************************************* //
