/*---------------------------------------------------------------------------*\
| =========                 |                                                 |
| \\      /  F ield         | OpenFOAM: The Open Source CFD Toolbox           |
|  \\    /   O peration     | Version:  1.4                                   |
|   \\  /    A nd           | Web:      http://www.openfoam.org               |
|    \\/     M anipulation  |                                                 |
\*---------------------------------------------------------------------------*/

FoamFile
{
    version         2.0;
    format          ascii;

    root            "";
    case            "";
    instance        "";
    local           "";

    class           dictionary;
    object          fvSchemes;
}

// * * * * * * * * * * * * * * * * * * * * * * * * * * * * * * * * * * * * * //

ddtSchemes
{
    default             CrankNicolson 1;
    ddt(U)_CN           1;
}

SIgravityWaves false;

gradSchemes
{
    default         none;
    linearUpwind    Gauss linear;
    grad(U)         Gauss linear;
    curl(U)         Gauss linear;
    grad(theta)     Gauss linear;
}

divSchemes
{
    default none;
    div(U,theta)                            Gauss linear;
    div(U,u)                                Gauss linear;
    div(volFlux,U)                          Gauss linear;
    div(volFlux,theta)                      Gauss linear;
    div(((rho*nuEff)*dev2(T(grad(U)))))     Gauss linear;
}

laplacianSchemes
{
    default         Gauss linear uncorrected;
}

interpolationSchemes
{
    default        linear;
}

snGradSchemes
{
    default         none;
    snGrad(Exner)   uncorrected;
}

fluxRequired
{
    default         no;
    Exner;
}


// ************************************************************************* //
