FoamFile
{
    version         2.3;
    format          ascii;

    root            "";
    case            "";
    instance        "constant";
    local           "";

    class           dictionary;
    object          gmtDict;
}

// How to plot
// Compulsory inputs
projection "X18c/6c";
projection2D XZ;

FieldsToPlot
(
    [Exner filledContours 0 0 0 "$GMTU/colours/red_white_blue.cpt"]
    [U vectors 0.05 3 "grey"]
);

separateLegend true;
//region "-5000/5000/0/1.25e4";
annotate "minMax 2.5 -0.1";
boundaryMarks "1/0.5";
plotBoundaryDots false;

