/*--------------------------------*- C++ -*----------------------------------*\
| =========                 |                                                 |
| \\      /  F ield         | OpenFOAM: The Open Source CFD Toolbox           |
|  \\    /   O peration     | Version:  1.5                                   |
|   \\  /    A nd           | Web:      http://www.OpenFOAM.org               |
|    \\/     M anipulation  |                                                 |
\*---------------------------------------------------------------------------*/
FoamFile
{
    version     2.0;
    format      ascii;
    class       dictionary;
    object      fvSolution;
}
// * * * * * * * * * * * * * * * * * * * * * * * * * * * * * * * * * * * * * //

solvers
{
    "(rho.sigma.stable|rho.sigma.buoyant)"
    {
        solver PCG;
        preconditioner   DIC;
        tolerance        0;
        relTol           0;
    }
    
    Exner
    {
        solver PCG;
        preconditioner DIC;
<<<<<<< HEAD
        tolerance        1e-9;
        relTol           0.001;
=======
        tolerance        1e-8;
        relTol           0.01;
>>>>>>> 6b4a9f6553a711f77e6e0b8f8250a3de7e4d0750
    }

    ExnerFinal
    {
        $Exner;
        relTol           0;
    }
    
    "(k.stable|k.buoyant|epsilon.stable|epsilon.buoyant|theta.stable|theta.buoyant|u.stable|u.buoyant)"
    {
        solver           PBiCGStab;
        preconditioner   DILU;
        tolerance        1e-8;
        relTol           0;
    }
}

iterations
{
    nOuterCorrectors 4;
    nCorrectors      2;
    nNonOrthogonalCorrectors 0;
}

initialisation
{
    maxIters 50;
    BCiters  3;
    BCtol    1e-8;
}

// ************************************************************************* //
