FoamFile
{
    version         2.3;
    format          ascii;

    root            "";
    case            "";
    instance        "constant";
    local           "";

    class           dictionary;
    object          gmtDict;
}

// How to plot
// Compulsory inputs
projection "X36c/18c";
projection2D XZ;

FieldsToPlot
(
    [thetaDiff filledContours -0.01 0.01 0.001 "$GMTU/colours/red_white_blue.cpt"]
);

