/*---------------------------------------------------------------------------*\
| =========                 |                                                 |
| \\      /  F ield         | OpenFOAM: The Open Source CFD Toolbox           |
|  \\    /   O peration     | Version:  1.4                                   |
|   \\  /    A nd           | Web:      http://www.openfoam.org               |
|    \\/     M anipulation  |                                                 |
\*---------------------------------------------------------------------------*/

FoamFile
{
    version         2.0;
    format          ascii;

    root            "";
    case            "";
    instance        "";
    local           "";

    class           dictionary;
    object          controlDict;
}

// * * * * * * * * * * * * * * * * * * * * * * * * * * * * * * * * * * * * * //

application     multiFluidFoam;

startFrom       latestTime;

startTime       0;

stopAt          endTime;

endTime         100;

deltaT          0.005;

writeControl    runTime;

writeInterval   0.005;

purgeWrite      0;

writeFormat     binary;

writePrecision  12;

writeCompression uncompressed;

timeFormat      general;

timePrecision   6;

runTimeModifiable no;

adjustTimeStep no;
maxCo          0.5;

functions
{
    minMaxMagU
    {
        type        fieldMinMax;
        libs        ("libfieldFunctionObjects.so");
        write       yes;
        log         yes;
        location    yes;
        mode        magnitude;
        fields
        (
            u
            u.stable
            u.buoyant
        );
    }
}

libs
(
    "libExnerTheta.so"
    "libfiniteVolumeAtmosFOAMtools.so"
    "libcompressibleTurbulenceModels.so"
    "libatmosphericModels.so"
);



// ************************************************************************* //
