/*---------------------------------------------------------------------------*\
| =========                 |                                                 |
| \\      /  F ield         | OpenFOAM: The Open Source CFD Toolbox           |
|  \\    /   O peration     | Version:  1.4                                   |
|   \\  /    A nd           | Web:      http://www.openfoam.org               |
|    \\/     M anipulation  |                                                 |
\*---------------------------------------------------------------------------*/

FoamFile
{
    version         2.0;
    format          ascii;

    root            "";
    case            "";
    instance        "";
    local           "";

    class           dictionary;
    object          blockMeshDict;
}

// * * * * * * * * * * * * * * * * * * * * * * * * * * * * * * * * * * * * * //

convertToMeters 1;

vertices
(
    ( 0             0.02    0)         // 0
    ( 2.01621725    0.02    0)         // 1
    ( 2.01621725    0.02    1)         // 2
    ( 0             0.02    1)         // 3
    ( 0             0       0)         // 4
    ( 2.01621725    0       0)         // 5
    ( 2.01621725    0       1)         // 6
    ( 0             0       1)         // 7
);
// Critical wavenumber from: Jeng & Hassard (1999), 
// "The critical wave number for the planar Benard problem is unique"

blocks
(
    hex (0 1 2 3 4 5 6 7) (1 624 1) 
    simpleGrading
    (
        1   // x-direction expansion ratio
        (
            (0.00512 12 1)  // lower boundary layer, 0.00512 x domain depth, 
                            // 12 cells (dy = 4.26...e-4), no expansion
            (0.00512 10 3.958189655)    // transition layer, from BL edge to 2 x 
                                        // BL edge, 10 cells, expansion 
                                        // ratio = 3.958189655
            (0.97952 580 1) // bulk layer, 97.952% y-dir, 580 cells 
                            // (dy = 1.688...e-3), no expansion
            (0.00512 10 0.2526407492)   // transition layer, from BL edge to 2 x 
                                        // BL edge, 10 cells, expansion 
                                        // ratio = 0.2526407492
            (0.00512 12 1)  // upper boundary layer, 0.00512 x domain depth, 
                            // 12 cells (dy = 4.26...e-4), no expansion
        )
        3   // z-direction expansion ratio
    )

);

edges
(
);

boundary
(
    ground
    {
        type wall;
        faces
        (
            (1 5 4 0)
        );
    }
    top
    {
        type wall;
        faces
        (
            (3 7 6 2)
        );
    }
    left
    {
        type cyclic;
        neighbourPatch right;
        faces
        (
            (0 4 7 3)
        );
    }
    right
    {
        type cyclic;
        neighbourPatch left;
        faces
        (
            (1 5 6 2)
        );
    }
    frontAndBack
    {
        type empty;
        faces
        (
            (0 3 2 1)
            (4 5 6 7)
        );
    }
);

mergePatchPairs
(
);

// ************************************************************************* //
