FoamFile
{
    version         2.3;
    format          ascii;

    root            "";
    case            "";
    instance        "constant";
    local           "";

    class           dictionary;
    object          gmtDict;
}

// How to plot
// Compulsory inputs
projection "X27c/9c";
projection2D XZ;

FieldsToPlot
(
    [P.diff filledContours 0 0 0 "$GMTU/colours/red_white_blue.cpt"]
    [u.diff vectors 1e9 23 "black"]
);

//separateLegend true;
//region "-5000/5000/0/1e4";
annotate "minMax -1e-9 1e-6";
//boundaryMarks "2500/2500";
plotBoundaryDots false;
