/*---------------------------------------------------------------------------*\
| =========                 |                                                 |
| \\      /  F ield         | OpenFOAM: The Open Source CFD Toolbox           |
|  \\    /   O peration     | Version:  1.4                                   |
|   \\  /    A nd           | Web:      http://www.openfoam.org               |
|    \\/     M anipulation  |                                                 |
\*---------------------------------------------------------------------------*/

FoamFile
{
    version         2.0;
    format          ascii;

    root            "";
    case            "";
    instance        "";
    local           "";

    class           dictionary;
    object          fvSchemes;
}

// * * * * * * * * * * * * * * * * * * * * * * * * * * * * * * * * * * * * * //

ddtSchemes
{
    default             CrankNicolson 0.9;
    ddt(rho,U)_CN       0.9;
}

SIgravityWaves false;

gradSchemes
{
    default         none;
    linearUpwind    Gauss linear;
    grad(U)         Gauss linear;
    curl(U)         Gauss linear;
    grad(T)         Gauss linear;
    grad(rho)       Gauss linear;
}

divSchemes
{
    default none;
    div(U,T)                                Gauss linear;
    div(U,u)                                Gauss linear;
    div(phi,U)                              Gauss linear;
    div(phi,K)                              Gauss linear;
    div(phi,h)                              Gauss linear;
    div(((rho*nuEff)*dev2(T(grad(U)))))     Gauss linear;
}

laplacianSchemes
{
    default         Gauss midPoint uncorrected;
}

interpolationSchemes
{
    default        linear;
}

snGradSchemes
{
    default         corrected;
}

fluxRequired
{
    default         no;
    Exner;
}


// ************************************************************************* //
