FoamFile
{
    version         2.3;
    format          ascii;

    root            "";
    case            "";
    instance        "constant";
    local           "";

    class           dictionary;
    object          gmtDict;
}

// How to plot
// Compulsory inputs
projection "X27c/9c";
projection2D XZ;

FieldsToPlot
(
    [theta filledContours 270 330 1 "$GMTU/colours/white_blue_red.cpt"]
    [Uf    vectors 50 17 "black"]
);

separateLegend true;
//region "-5000/5000/0/1e4";
//annotate "minMax -4.7e3 400";
boundaryMarks "1/0.5";
plotBoundaryDots false;
