FoamFile {
    version     2.0;
    format      ascii;
    class       dictionary;
    location    "constant";
    object      setInitialTracerFieldDict;
}

type    polynomial;
a_1     300.5;
a_2       0.0;
a_3      -0.1;
a_4       0.0;
a_5       0.0;
a_6       0.0;
a_7       0.0;
a_8       0.0;
a_9       0.0;
