FoamFile
{
    version         2.3;
    format          ascii;

    root            "";
    case            "";
    instance        "constant";
    local           "";

    class           dictionary;
    object          gmtDict;
}

// How to plot
// Compulsory inputs
projection "X27c/9c";
projection2D XZ;

FieldsToPlot
(
    [nut filledContours 0 3.5e-4 0.25 "$GMTU/colours/red_white_blue.cpt"]
);

separateLegend false;
//region "-5000/5000/0/1.25e4";
annotate "minMax 2.5 -0.001";
boundaryMarks "1/0.5";
plotBoundaryDots false;

