FoamFile
{
    version         2.3;
    format          ascii;

    root            "";
    case            "";
    instance        "constant";
    local           "";

    class           dictionary;
    object          gmtDict;
}

// How to plot
// Compulsory inputs
projection "X27c/9c";
projection2D XZ;

FieldsToPlot
(
    [theta filledContours 270 330 1 "$GMTU/colours/red_white_blue.cpt"]
//    [theta rawValues 299 301 0.01 "$GMTU/colours/red_white_blue.cpt"]
    [Uf vectors 0.1 225 "black"]
);

separateLegend true;
//region "-5000/5000/0/1.25e4";
annotate "minMax 2.5 -0.001";
boundaryMarks "1/0.5";
plotBoundaryDots false;

