FoamFile
{
    version         2.3;
    format          ascii;

    root            "";
    case            "";
    instance        "constant";
    local           "";

    class           dictionary;
    object          gmtDict;
}

// How to plot
// Compulsory inputs
projection "X27c/9c";
projection2D XZ;

FieldsToPlot
(
    [theta.diff_ExVsTurb   rawValues 0 0 0 "$GMTU/colours/red_white_blue.cpt"]
);

//separateLegend true;
//region "-5000/5000/0/1e4";
annotate "minMax -1e-5 1e-5";
//boundaryMarks "2500/2500";
plotBoundaryDots false;
