FoamFile
{
    version         2.3;
    format          ascii;

    root            "";
    case            "";
    instance        "constant";
    local           "";

    class           dictionary;
    object          gmtDict;
}

// How to plot
// Compulsory inputs
projection "X27c/9c";
projection2D XZ;

FieldsToPlot
(
    [Exner filledContours -1e-9 1e-9 0 "$GMTU/colours/red_white_blue.cpt"]
);

//separateLegend true;
//region "-5000/5000/0/1e4";
//annotate "minMax -1.2e3 400";
boundaryMarks "1/0.5";
plotBoundaryDots false;
