FoamFile
{
    version         2.3;
    format          ascii;

    root            "";
    case            "";
    instance        "constant";
    local           "";

    class           dictionary;
    object          gmtDict;
}

// How to plot
// Compulsory inputs
projection "X27c/9c";
projection2D XZ;

FieldsToPlot
(
//    [theta  filledContours 300 302 0.2 "$GMTU/colours/white_blue_red.cpt"]

//    [sigma.buoyant filledContours 0 1 0.1 "$GMTU/colours/white_grey.cpt"]
    [theta.stable  colouredContours 270 330 1 "$GMTU/colours/white_blue_red.cpt"]
//    [theta.buoyant  colouredContours 270 330 1 "$GMTU/colours/white_grey.cpt"]
    [Uf.buoyant vectors 0.5 11 "red"]
    [Uf.stable vectors  0.5 11 "blue"]
//    [Uf vectors  50 26 "black"]
);

separateLegend true;
//region "-5000/5000/0/1e4";
//annotate "minMax 2.5 -0.01";
boundaryMarks "1/0.5";
plotBoundaryDots false;
