FoamFile
{
    version         2.3;
    format          ascii;

    root            "";
    case            "";
    instance        "constant";
    local           "";

    class           dictionary;
    object          gmtDict;
}

// How to plot
// Compulsory inputs
projection "X27c/9c";
projection2D XZ;

FieldsToPlot
(
//    [theta rawValues 270 330 1 "$GMTU/colours/white_blue_red.cpt"]
    [theta filledContours 270 330 1 "$GMTU/colours/white_blue_red.cpt"]
    [Uf    vectors 0.2 23 "black"]
);

separateLegend true;
//region "-5000/5000/0/1e4";
//annotate "minMax 2.5 -0.01";
boundaryMarks "1/0.5";
plotBoundaryDots false;
