/*--------------------------------*- C++ -*----------------------------------*\
| =========                 |                                                 |
| \\      /  F ield         | OpenFOAM: The Open Source CFD Toolbox           |
|  \\    /   O peration     | Version:  dev                                   |
|   \\  /    A nd           | Web:      www.OpenFOAM.org                      |
|    \\/     M anipulation  |                                                 |
\*---------------------------------------------------------------------------*/
FoamFile
{
    version     2.0;
    format      ascii;
    class       dictionary;
    object      setFieldsDict;
}
// * * * * * * * * * * * * * * * * * * * * * * * * * * * * * * * * * * * * * //

defaultFieldValues
(
    volScalarFieldValue sigma.buoyant 0.1
);

regions
(
    // set sigma.buoyant to be 0.9 on left half of domain, 0.1 on right half
    // Set cell values
    // (does zerogradient on boundaries)
    boxToCell
    {
        box (0 0 -1) (5 1 2);
        fieldValues
        (
            volScalarFieldValue sigma.buoyant 0.9
        );
    }
);

// ************************************************************************* //
