/*--------------------------------*- C++ -*----------------------------------*\
| =========                 |                                                 |
| \\      /  F ield         | OpenFOAM: The Open Source CFD Toolbox           |
|  \\    /   O peration     | Version:  dev                                   |
|   \\  /    A nd           | Web:      www.OpenFOAM.org                      |
|    \\/     M anipulation  |                                                 |
\*---------------------------------------------------------------------------*/
FoamFile
{
    version     2.0;
    format      binary;
    class       polyBoundaryMesh;
    location    "constant/polyMesh";
    object      boundary;
}
// * * * * * * * * * * * * * * * * * * * * * * * * * * * * * * * * * * * * * //

5
(
    ground
    {
        type            wall;
        inGroups        1(wall);
        nFaces          200;
        startFace       39700;
    }
    top
    {
        type            wall;
        inGroups        1(wall);
        nFaces          200;
        startFace       39900;
    }
    left
    {
        type            wall;
        inGroups        1(wall);
        nFaces          100;
        startFace       40100;
    }
    right
    {
        type            wall;
        inGroups        1(wall);
        nFaces          100;
        startFace       40200;
    }
    defaultFaces
    {
        type            empty;
        inGroups        1(empty);
        nFaces          40000;
        startFace       40300;
    }
)

// ************************************************************************* //
